@<TRIPOS>MOLECULE
RoA-6_ligand
35   37    1
SMALL
USER_CHARGES


@<TRIPOS>ATOM
      1 C1          6.0192    8.6494   11.0000 C.ar      1 UNK         0.0768 
      2 C2          6.6154    7.6958   11.8420 C.ar      1 UNK        -0.1294 
      3 C3          5.8830    6.6175   12.3423 C.ar      1 UNK        -0.1262 
      4 C4          4.5189    6.4725   12.0106 C.ar      1 UNK         0.1660 
      5 C5          3.9003    7.4470   11.1680 C.ar      1 UNK         0.3396 
      6 C6          4.6639    8.5332   10.6822 C.ar      1 UNK        -0.1736 
      7 N7          3.8084    5.4118   12.4928 N.ar      1 UNK        -0.2691 
      8 C8          2.5005    5.3179   12.1233 C.ar      1 UNK         0.0049 
      9 C9          1.9001    6.2489   11.2751 C.ar      1 UNK         0.2544 
     10 N10         2.5881    7.3319   10.8153 N.ar      1 UNK        -0.5852 
     11 C11         1.6913    4.1668   12.6722 C.ar      1 UNK         0.4335 
     12 N12         0.4009    4.1356   12.1888 N.pl3     1 UNK        -0.0447 
     13 C13        -0.2419    5.0339   11.3542 C.ar      1 UNK         0.3859 
     14 N14         0.5514    6.0560   10.8945 N.pl3     1 UNK         0.0348 
     15 O15         2.1525    3.3481   13.4717 O.2       1 UNK        -0.4691 
     16 O16        -1.4344    4.9291   11.0446 O.2       1 UNK        -0.5205 
     17 N17         6.6850    9.7537   10.4363 N.am      1 UNK        -0.4121 
     18 C18        -0.4296    2.9888   12.6333 C.3       1 UNK        -0.1528 
     19 C19        -0.0240    7.0103    9.9228 C.3       1 UNK        -0.1609 
     20 C20         8.0027   10.0418   10.4171 C.2       1 UNK         0.4693 
     21 O21         8.8891    9.3482   10.9012 O.2       1 UNK        -0.5123 
     22 C22         8.3879   11.3367    9.7090 C.3       1 UNK        -0.2026 
     23 H23         7.6518    7.7687   12.1312 H         1 UNK         0.1504 
     24 H24         6.3525    5.8891   12.9866 H         1 UNK         0.1620 
     25 H25         4.1777    9.2543   10.0391 H         1 UNK         0.1627 
     26 H26         6.0835   10.4063    9.9563 H         1 UNK         0.3065 
     27 H27        -0.0490    2.4760   13.5180 H         1 UNK         0.0906 
     28 H28        -0.4999    2.2506   11.8320 H         1 UNK         0.0906 
     29 H29        -1.4452    3.2986   12.8840 H         1 UNK         0.0906 
     30 H30        -1.0491    6.7872    9.6250 H         1 UNK         0.0896 
     31 H31         0.5743    7.0088    9.0095 H         1 UNK         0.0896 
     32 H32        -0.0117    8.0231   10.3288 H         1 UNK         0.0896 
     33 H33         7.5202   11.8514    9.2945 H         1 UNK         0.0903 
     34 H34         9.0831   11.1242    8.8974 H         1 UNK         0.0903 
     35 H35         8.8853   12.0095   10.4080 H         1 UNK         0.0903 
@<TRIPOS>BOND
     1    1    2 ar   
     2    1    6 ar   
     3    1   17 1    
     4    2    3 ar   
     5    2   23 1    
     6    3    4 ar   
     7    3   24 1    
     8    4    5 ar   
     9    4    7 ar   
    10    5    6 ar   
    11    5   10 ar   
    12    6   25 1    
    13    7    8 ar   
    14    8    9 ar   
    15    8   11 ar   
    16    9   10 ar   
    17    9   14 ar   
    18   11   12 ar   
    19   11   15 2    
    20   12   13 ar   
    21   12   18 1    
    22   13   14 ar   
    23   13   16 2    
    24   14   19 1    
    25   17   20 am   BACKBONE|DICT|INTERRES
    26   17   26 1    
    27   18   27 1    
    28   18   28 1    
    29   18   29 1    
    30   19   30 1    
    31   19   31 1    
    32   19   32 1    
    33   20   21 2    
    34   20   22 1    
    35   22   33 1    
    36   22   34 1    
    37   22   35 1    
@<TRIPOS>SUBSTRUCTURE
     1 UNK         1 GROUP             0 Z     ****    0 ROOT    
