@<TRIPOS>MOLECULE
Ro 08-2750
30   32    1
SMALL
USER_CHARGES


@<TRIPOS>ATOM
      1 C1          6.9502    9.8440   10.1728 C.ar      1 UNK        -0.1516 
      2 C2          5.8065   10.2926    9.4802 C.ar      1 UNK        -0.0540 
      3 C3          4.6117    9.5735    9.5775 C.ar      1 UNK        -0.0534 
      4 C4          4.5365    8.4156   10.3491 C.ar      1 UNK         0.0563 
      5 C5          5.6807    7.9447   11.0378 C.ar      1 UNK         0.2030 
      6 C6          6.8729    8.6729   10.9420 C.ar      1 UNK        -0.1365 
      7 N7          3.2868    7.7663   10.3981 N.2       1 UNK        -0.2186 
      8 C8          3.1891    6.6706   11.0526 C.ar      1 UNK         0.1163 
      9 C9          4.3316    6.0228   11.8386 C.ar      1 UNK         0.3573 
     10 N10         5.5535    6.7361   11.7957 N.pl3     1 UNK        -0.2524 
     11 C11         1.8931    5.9685   11.0717 C.ar      1 UNK         0.3957 
     12 N12         1.8963    4.8270   11.8208 N.pl3     1 UNK        -0.2953 
     13 C13         2.9223    4.2680   12.5366 C.ar      1 UNK         0.6664 
     14 N14         4.1692    4.9309   12.5061 N.2       1 UNK        -0.6938 
     15 O15         0.8676    6.3361   10.4988 O.2       1 UNK        -0.4646 
     16 O16         2.6299    3.2405   13.1354 O.2       1 UNK        -0.4720 
     17 C17         6.7162    6.2381   12.5402 C.3       1 UNK        -0.0899 
     18 C18         5.8165   11.5507    8.6170 C.3       1 UNK        -0.1278 
     19 C19         8.2498   10.5788   10.0986 C.2       1 UNK         0.4836 
     20 O20         9.2893   10.2027   10.6436 O.2       1 UNK        -0.4339 
     21 H21         3.7347    9.9129    9.0454 H         1 UNK         0.1671 
     22 H22         7.7532    8.3251   11.4640 H         1 UNK         0.1429 
     23 H23         1.0273    4.3200   11.8553 H         1 UNK         0.2892 
     24 H24         6.5201    5.3412   13.1309 H         1 UNK         0.0885 
     25 H25         7.0744    6.9960   13.2372 H         1 UNK         0.0885 
     26 H26         7.5277    5.9971   11.8526 H         1 UNK         0.0885 
     27 H27         4.8479   11.7456    8.1539 H         1 UNK         0.0835 
     28 H28         6.5474   11.4580    7.8130 H         1 UNK         0.0835 
     29 H29         6.0700   12.4232    9.2199 H         1 UNK         0.0835 
     30 H30         8.2342   11.5036    9.5229 H         1 UNK         0.0497 
@<TRIPOS>BOND
     1    1   19 1    
     2    1    2 ar   
     3    1    6 ar   
     4    2    3 ar   
     5    2   18 1    
     6    3    4 ar   
     7    3   21 1    
     8    4    5 ar   
     9    4    7 ar   
    10    5    6 ar   
    11    5   10 ar   
    12    6   22 1    
    13    7    8 ar   
    14    8    9 ar   
    15    8   11 ar   
    16    9   10 ar   
    17    9   14 ar   
    18   10   17 1    
    19   11   12 ar   
    20   11   15 2    
    21   12   13 ar   
    22   12   23 1    
    23   13   14 ar   
    24   13   16 2    
    25   17   24 1    
    26   17   25 1    
    27   17   26 1    
    28   18   27 1    
    29   18   28 1    
    30   18   29 1    
    31   19   20 2    
    32   19   30 1    
@<TRIPOS>SUBSTRUCTURE
     1 UNK         1 GROUP             0       ****    0 ROOT    
